Version 4
SHEET 1 924 680
WIRE 128 96 -16 96
WIRE -16 128 -16 96
WIRE 128 128 128 96
WIRE -16 256 -16 208
WIRE 128 256 128 192
WIRE 128 256 -16 256
WIRE -16 288 -16 256
FLAG -16 288 0
SYMBOL diode 112 128 R0
SYMATTR InstName D1
SYMATTR Value D1n4007
SYMBOL voltage -16 112 R0
WINDOW 123 0 0 Left 0
WINDOW 39 0 0 Left 0
SYMATTR InstName V1
SYMATTR Value 0
TEXT -50 312 Left 2 !.dc V1 0 2 0.1
TEXT -88 72 Left 2 ;Method-2: Use .include or .inc
TEXT 280 168 Left 2 !.inc 1N4007.REV0.LIB
