Version 4
SHEET 1 924 788
WIRE 0 32 -16 32
WIRE 160 32 144 32
WIRE -16 64 -16 32
WIRE -16 192 -16 144
FLAG -16 192 0
SYMBOL voltage -16 48 R0
WINDOW 123 0 0 Left 0
WINDOW 39 0 0 Left 0
WINDOW 3 14 104 Left 1
SYMATTR Value PULSE(6 12 0 100u 100u 400u 800u)
SYMATTR InstName V1
SYMBOL HierarchyZenerVoltageRegulator 64 32 R0
SYMATTR InstName X1
TEXT 0 168 Left 1 !.tran 4m
