Version 4
SHEET 1 880 680
WIRE 240 64 48 64
WIRE 48 112 48 64
WIRE 240 112 240 64
WIRE 48 256 48 192
WIRE 240 256 240 176
WIRE 240 256 48 256
WIRE 48 288 48 256
FLAG 48 288 0
SYMBOL voltage 48 96 R0
WINDOW 123 0 0 Left 0
WINDOW 39 0 0 Left 0
SYMATTR InstName V1
SYMATTR Value 0
SYMBOL schottky 224 112 R0
SYMATTR InstName D1
SYMATTR Value 1N5817
SYMATTR Description Diode
SYMATTR Type diode
TEXT 72 272 Left 2 !.dc V1 0 1 0.01 temp list 25 125 150
TEXT -192 320 Left 1 ;In this DC Sweep example the V1 voltage source is changing from 0V to 1V with a step \ninc. of 0.01V. And the simulation is also executed for different temperature values.
