Version 4
SHEET 1 1564 680
WIRE 400 192 336 192
WIRE 528 192 400 192
WIRE 400 208 400 192
WIRE 528 208 528 192
WIRE 400 320 400 288
WIRE 528 320 528 288
WIRE 656 320 528 320
WIRE 704 320 656 320
WIRE 528 336 528 320
WIRE 656 352 656 320
WIRE 400 432 400 400
WIRE 528 432 528 416
WIRE 528 432 400 432
WIRE 656 432 656 416
WIRE 656 432 528 432
WIRE 400 448 400 432
FLAG 400 448 0
FLAG 336 192 Vin
IOPIN 336 192 In
FLAG 704 320 Vsen
SYMBOL voltage 400 192 R0
WINDOW 39 0 0 Left 2
WINDOW 3 -151 55 Left 1
WINDOW 123 -87 55 Left 2
SYMATTR Value ""
SYMATTR InstName V1
SYMATTR Value2 AC 1
SYMBOL res 512 192 R0
SYMATTR InstName R1
SYMATTR Value 90k
SYMBOL voltage 400 304 R0
WINDOW 3 -40 -4 VRight 1
WINDOW 123 0 0 Left 0
WINDOW 39 0 0 Left 0
SYMATTR InstName V2
SYMATTR Value SINE(0 2 100k)
SYMBOL res 512 320 R0
SYMATTR InstName R2
SYMATTR Value 10k
SYMBOL cap 640 352 R0
SYMATTR InstName C1
SYMATTR Value 17.7n
TEXT 426 448 Left 2 !.ac dec 20 10 1Meg
TEXT 424 472 Left 2 !.meas AC dc_gain MAX mag(V(Vsen))
TEXT -232 200 Left 1 ;The following command helps in finding the DC Gain.\n.meas AC dc_gain MAX mag(V(Vsen))\n \nPole Frequency: Trigger condition is the magnitude falling below \ndc_gain/sqrt(2) which means dc_gain(dB) - 3dB\n.meas AC Pole_Frequency TRIG mag(V(Vsen))=dc_gain/sqrt(2) FALL=1
TEXT 424 496 Left 2 !.meas AC Pole_Frequency TRIG mag(V(Vsen))=dc_gain/sqrt(2) FALL=1
